<?xml version="1.0" encoding="UTF-8"?>

<!-- generated on Tue Jun 26 16:15:15 2018 by SUMO duarouter Version 0.32.0
<?xml version="1.0" encoding="UTF-8"?>

<configuration xmlns:xsi="http://www.w3.org/2001/XMLSchema-instance" xsi:noNamespaceSchemaLocation="http://sumo.dlr.de/xsd/duarouterConfiguration.xsd">

    <input>
        <net-file value="/home/xprilion/sims/data/normal/cross.net.xml"/>
        <route-files value="trips.trips.xml"/>
    </input>

    <output>
        <output-file value="/home/xprilion/sims/data/normal/cross.rou.xml"/>
        <alternatives-output value="/home/xprilion/sims/data/normal/cross.rou.alt.xml"/>
    </output>

    <processing>
        <ignore-errors value="true"/>
    </processing>

    <time>
        <begin value="0"/>
        <end value="100.0"/>
    </time>

    <report>
        <no-warnings value="true"/>
        <no-step-log value="true"/>
    </report>

</configuration>
-->

<routes xmlns:xsi="http://www.w3.org/2001/XMLSchema-instance" xsi:noNamespaceSchemaLocation="http://sumo.dlr.de/xsd/routes_file.xsd">
    <vehicle id="0" depart="0.00">
        <route edges="gneE29 -gneE38 -gneE37 gneE51"/>
    </vehicle>
    <vehicle id="1" depart="1.00">
        <route edges="gneE36 gneE37 gneE38 -gneE51 -gneE36"/>
    </vehicle>
    <vehicle id="2" depart="2.00">
        <route edges="gneE32 gneE33 gneE34 gneE44"/>
    </vehicle>
    <vehicle id="3" depart="3.00">
        <route edges="-gneE29 gneE45 gneE41"/>
    </vehicle>
    <vehicle id="4" depart="4.00">
        <route edges="gneE28 gneE29 -gneE38 -gneE37 gneE51"/>
    </vehicle>
    <vehicle id="5" depart="5.00">
        <route edges="-gneE34 gneE27 gneE28 gneE29 -gneE51 gneE37"/>
    </vehicle>
    <vehicle id="6" depart="6.00">
        <route edges="-gneE34 gneE27 gneE28 -gneE47 gneE40"/>
    </vehicle>
    <vehicle id="7" depart="7.00">
        <route edges="gneE48"/>
    </vehicle>
    <vehicle id="8" depart="8.00">
        <route edges="gneE40 -gneE45 gneE29 gneE30 gneE31 -gneE42"/>
    </vehicle>
    <vehicle id="9" depart="9.00">
        <route edges="gneE39 gneE47 -gneE28 -gneE27 -gneE49"/>
    </vehicle>
    <vehicle id="10" depart="10.00">
        <route edges="gneE42 gneE32 gneE33 gneE34 gneE35 -gneE50"/>
    </vehicle>
    <vehicle id="11" depart="11.00">
        <route edges="gneE42 -gneE31 -gneE30 gneE39 gneE40 -gneE45"/>
    </vehicle>
    <vehicle id="12" depart="12.00">
        <route edges="-gneE28 -gneE27 -gneE49 -gneE48"/>
    </vehicle>
    <vehicle id="13" depart="13.00">
        <route edges="gneE33 gneE27 gneE28 gneE29 -gneE51 -gneE36"/>
    </vehicle>
    <vehicle id="14" depart="14.00">
        <route edges="gneE49 -gneE33 gneE48 gneE50 -gneE35"/>
    </vehicle>
    <vehicle id="15" depart="15.00">
        <route edges="-gneE33 -gneE32 -gneE31 gneE46 -gneE37 gneE51"/>
    </vehicle>
    <vehicle id="16" depart="16.00">
        <route edges="gneE36 gneE37 gneE38 -gneE51"/>
    </vehicle>
    <vehicle id="17" depart="17.00">
        <route edges="-gneE49 gneE50 gneE36"/>
    </vehicle>
    <vehicle id="18" depart="18.00">
        <route edges="gneE49 gneE27 gneE28 gneE29 -gneE38 -gneE37"/>
    </vehicle>
    <vehicle id="19" depart="19.00">
        <route edges="gneE45 -gneE40 -gneE39 -gneE29"/>
    </vehicle>
    <vehicle id="20" depart="20.00">
        <route edges="gneE51 -gneE29 -gneE28 -gneE27 -gneE33 gneE48"/>
    </vehicle>
    <vehicle id="21" depart="21.00">
        <route edges="-gneE32 -gneE42 -gneE27 -gneE33"/>
    </vehicle>
    <vehicle id="22" depart="22.00">
        <route edges="gneE49 gneE27 gneE28 gneE29 -gneE51 gneE37"/>
    </vehicle>
    <vehicle id="23" depart="23.00">
        <route edges="gneE36 gneE51 gneE30 gneE31 gneE32"/>
    </vehicle>
    <vehicle id="24" depart="24.00">
        <route edges="gneE36"/>
    </vehicle>
    <vehicle id="25" depart="25.00">
        <route edges="gneE36 gneE51 -gneE29 -gneE28 -gneE27 -gneE49 gneE50 -gneE35"/>
    </vehicle>
    <vehicle id="26" depart="26.00">
        <route edges="-gneE37 -gneE36 -gneE50 gneE49"/>
    </vehicle>
    <vehicle id="27" depart="27.00">
        <route edges="-gneE33 -gneE32"/>
    </vehicle>
    <vehicle id="28" depart="28.00">
        <route edges="-gneE49 -gneE48 gneE33 gneE27 gneE28 gneE29 -gneE38"/>
    </vehicle>
    <vehicle id="29" depart="29.00">
        <route edges="-gneE46 -gneE30 -gneE29 -gneE28 gneE42"/>
    </vehicle>
    <vehicle id="30" depart="30.00">
        <route edges="gneE29 -gneE38 -gneE46 -gneE30 -gneE29 -gneE47"/>
    </vehicle>
    <vehicle id="31" depart="31.00">
        <route edges="gneE41 -gneE27 -gneE33"/>
    </vehicle>
    <vehicle id="32" depart="32.00">
        <route edges="-gneE45 -gneE28 -gneE27 -gneE49 -gneE48"/>
    </vehicle>
    <vehicle id="33" depart="33.00">
        <route edges="gneE32 gneE33 gneE27 gneE28 gneE29 -gneE51 -gneE36"/>
    </vehicle>
    <vehicle id="34" depart="34.00">
        <route edges="-gneE31 -gneE30 -gneE29 -gneE28 -gneE27 -gneE33 gneE48 gneE49"/>
    </vehicle>
    <vehicle id="35" depart="35.00">
        <route edges="-gneE47 -gneE39 gneE30 gneE46"/>
    </vehicle>
    <vehicle id="36" depart="36.00">
        <route edges="gneE50 -gneE35 -gneE34 -gneE33 -gneE32 -gneE42"/>
    </vehicle>
    <vehicle id="37" depart="37.00">
        <route edges="-gneE31 -gneE30 -gneE51 -gneE36"/>
    </vehicle>
    <vehicle id="38" depart="38.00">
        <route edges="-gneE50 gneE49 gneE27 gneE28 gneE45"/>
    </vehicle>
    <vehicle id="39" depart="39.00">
        <route edges="-gneE35 -gneE34 -gneE33"/>
    </vehicle>
    <vehicle id="40" depart="40.00">
        <route edges="gneE40 gneE41 gneE42 gneE32"/>
    </vehicle>
    <vehicle id="41" depart="41.00">
        <route edges="-gneE42 -gneE41 -gneE44"/>
    </vehicle>
    <vehicle id="42" depart="42.00">
        <route edges="-gneE40 -gneE39 -gneE38 -gneE37"/>
    </vehicle>
    <vehicle id="43" depart="43.00">
        <route edges="-gneE50 gneE49 gneE27 gneE28 gneE29 -gneE38 -gneE37 gneE51"/>
    </vehicle>
    <vehicle id="44" depart="44.00">
        <route edges="-gneE51 gneE37"/>
    </vehicle>
    <vehicle id="45" depart="45.00">
        <route edges="-gneE45 gneE29 -gneE38 -gneE46"/>
    </vehicle>
    <vehicle id="46" depart="46.00">
        <route edges="-gneE40 gneE47 gneE45 -gneE44 -gneE34"/>
    </vehicle>
    <vehicle id="47" depart="47.00">
        <route edges="-gneE50 gneE49 gneE27 gneE28 gneE29 gneE39 gneE47"/>
    </vehicle>
    <vehicle id="48" depart="48.00">
        <route edges="-gneE50 gneE49 gneE34 gneE44"/>
    </vehicle>
    <vehicle id="49" depart="49.00">
        <route edges="-gneE46 -gneE30 -gneE51"/>
    </vehicle>
    <vehicle id="50" depart="50.00">
        <route edges="-gneE33 -gneE32 -gneE31 -gneE30 -gneE51 -gneE36"/>
    </vehicle>
    <vehicle id="51" depart="51.00">
        <route edges="-gneE36 -gneE35 gneE44 -gneE45 gneE29 -gneE38"/>
    </vehicle>
    <vehicle id="52" depart="52.00">
        <route edges="gneE36 gneE37 gneE38 -gneE51 -gneE36"/>
    </vehicle>
    <vehicle id="53" depart="53.00">
        <route edges="-gneE37 gneE51 -gneE38"/>
    </vehicle>
    <vehicle id="54" depart="54.00">
        <route edges="-gneE30 -gneE29 gneE45 -gneE44 gneE35 -gneE50"/>
    </vehicle>
    <vehicle id="55" depart="55.00">
        <route edges="-gneE46 -gneE30 -gneE29 -gneE47"/>
    </vehicle>
    <vehicle id="56" depart="56.00">
        <route edges="-gneE51 gneE37 gneE38 -gneE29 -gneE28 -gneE27 -gneE33 -gneE32"/>
    </vehicle>
    <vehicle id="57" depart="57.00">
        <route edges="gneE42 -gneE31 gneE46 gneE38 gneE30"/>
    </vehicle>
    <vehicle id="58" depart="58.00">
        <route edges="-gneE36 -gneE50 gneE49 gneE34 gneE35 gneE36"/>
    </vehicle>
    <vehicle id="59" depart="59.00">
        <route edges="-gneE38 -gneE46 -gneE30 gneE39 gneE40"/>
    </vehicle>
    <vehicle id="60" depart="60.00">
        <route edges="-gneE50 gneE49 gneE27 gneE42 -gneE31 -gneE30"/>
    </vehicle>
    <vehicle id="61" depart="61.00">
        <route edges="-gneE37 gneE51 -gneE29 gneE45 -gneE44 gneE35"/>
    </vehicle>
    <vehicle id="62" depart="62.00">
        <route edges="gneE36 gneE51 gneE39 gneE40"/>
    </vehicle>
    <vehicle id="63" depart="63.00">
        <route edges="-gneE38 -gneE37 gneE51"/>
    </vehicle>
    <vehicle id="64" depart="64.00">
        <route edges="gneE50 -gneE35 gneE44 -gneE45 gneE29 gneE30"/>
    </vehicle>
    <vehicle id="65" depart="65.00">
        <route edges="-gneE46 -gneE30 -gneE29 gneE45 -gneE40"/>
    </vehicle>
    <vehicle id="66" depart="66.00">
        <route edges="gneE42 -gneE31 -gneE30 -gneE51 -gneE36"/>
    </vehicle>
    <vehicle id="67" depart="67.00">
        <route edges="-gneE47 -gneE39 -gneE29 gneE45 -gneE40"/>
    </vehicle>
    <vehicle id="68" depart="68.00">
        <route edges="-gneE40 -gneE39 -gneE38 -gneE37 gneE51"/>
    </vehicle>
    <vehicle id="69" depart="69.00">
        <route edges="-gneE36 -gneE35 gneE44 -gneE45 -gneE47 gneE40"/>
    </vehicle>
    <vehicle id="70" depart="70.00">
        <route edges="gneE42 gneE32 gneE48 gneE49"/>
    </vehicle>
    <vehicle id="71" depart="71.00">
        <route edges="-gneE31 -gneE30 -gneE29 -gneE28 -gneE27 -gneE49 gneE50"/>
    </vehicle>
    <vehicle id="72" depart="72.00">
        <route edges="gneE38 -gneE51 -gneE36"/>
    </vehicle>
    <vehicle id="73" depart="73.00">
        <route edges="-gneE37 gneE51 gneE39 gneE47 gneE29"/>
    </vehicle>
    <vehicle id="74" depart="74.00">
        <route edges="gneE29 gneE39 gneE47 gneE45 -gneE40"/>
    </vehicle>
    <vehicle id="75" depart="75.00">
        <route edges="-gneE51 -gneE36"/>
    </vehicle>
    <vehicle id="76" depart="76.00">
        <route edges="-gneE30 -gneE29 -gneE28 -gneE27 -gneE33 gneE48 gneE49"/>
    </vehicle>
    <vehicle id="77" depart="77.00">
        <route edges="-gneE34 gneE27 gneE42 -gneE31"/>
    </vehicle>
    <vehicle id="78" depart="78.00">
        <route edges="-gneE33 gneE48 gneE49 gneE27 -gneE41 -gneE45"/>
    </vehicle>
    <vehicle id="79" depart="79.00">
        <route edges="-gneE51 gneE37 -gneE46"/>
    </vehicle>
    <vehicle id="80" depart="80.00">
        <route edges="-gneE32 -gneE42 -gneE41 -gneE45"/>
    </vehicle>
    <vehicle id="81" depart="81.00">
        <route edges="-gneE47 -gneE39 -gneE29 -gneE28 -gneE27 -gneE49"/>
    </vehicle>
    <vehicle id="82" depart="82.00">
        <route edges="gneE48 gneE50 gneE36"/>
    </vehicle>
    <vehicle id="83" depart="83.00">
        <route edges="-gneE36 -gneE35 gneE44 -gneE45 gneE29 gneE39"/>
    </vehicle>
    <vehicle id="84" depart="84.00">
        <route edges="-gneE30 -gneE29 gneE45 -gneE44 gneE35 gneE36"/>
    </vehicle>
    <vehicle id="85" depart="85.00">
        <route edges="-gneE40 gneE47 gneE45 -gneE44 gneE35"/>
    </vehicle>
    <vehicle id="86" depart="86.00">
        <route edges="gneE35 -gneE50 gneE49 gneE27 -gneE41 -gneE44 -gneE34"/>
    </vehicle>
    <vehicle id="87" depart="87.00">
        <route edges="gneE46 gneE38 -gneE29 -gneE28 -gneE27"/>
    </vehicle>
    <vehicle id="88" depart="88.00">
        <route edges="gneE39 gneE47 gneE29 -gneE38 -gneE37 gneE51"/>
    </vehicle>
    <vehicle id="89" depart="89.00">
        <route edges="gneE46 gneE38 -gneE29 gneE45 -gneE44 -gneE34 gneE27"/>
    </vehicle>
    <vehicle id="90" depart="90.00">
        <route edges="gneE50 -gneE35 gneE44 -gneE45 gneE29 -gneE38"/>
    </vehicle>
    <vehicle id="91" depart="91.00">
        <route edges="gneE51 -gneE29 -gneE28 -gneE27"/>
    </vehicle>
    <vehicle id="92" depart="92.00">
        <route edges="-gneE50 gneE49 -gneE33 gneE48 gneE50"/>
    </vehicle>
    <vehicle id="93" depart="93.00">
        <route edges="-gneE40 gneE47 gneE45 -gneE44 gneE35 -gneE50"/>
    </vehicle>
    <vehicle id="94" depart="94.00">
        <route edges="gneE42 -gneE31 -gneE30 -gneE29 gneE45 -gneE40"/>
    </vehicle>
    <vehicle id="95" depart="95.00">
        <route edges="-gneE27 -gneE49 gneE50 -gneE35"/>
    </vehicle>
    <vehicle id="96" depart="96.00">
        <route edges="gneE35 -gneE50 gneE49 gneE27 gneE28 -gneE47 -gneE39"/>
    </vehicle>
    <vehicle id="97" depart="97.00">
        <route edges="-gneE29 -gneE28 gneE42 -gneE31"/>
    </vehicle>
    <vehicle id="98" depart="98.00">
        <route edges="-gneE40 -gneE39 gneE30 gneE31 -gneE42"/>
    </vehicle>
    <vehicle id="99" depart="99.00">
        <route edges="-gneE31 -gneE30 -gneE38 -gneE46 gneE31"/>
    </vehicle>
</routes>
