<?xml version="1.0" encoding="UTF-8"?>

<!-- generated on Tue 26 Jun 2018 04:13:53 PM IST by Netedit Version 0.32.0
<?xml version="1.0" encoding="UTF-8"?>

<configuration xmlns:xsi="http://www.w3.org/2001/XMLSchema-instance" xsi:noNamespaceSchemaLocation="http://sumo.dlr.de/xsd/netconvertConfiguration.xsd">

    <input>
        <sumo-net-file value="data/normal/cross.net.xml"/>
    </input>

    <output>
        <output-file value="data/normal/cross.net.xml"/>
    </output>

    <processing>
        <no-turnarounds value="true"/>
        <offset.disable-normalization value="true"/>
        <lefthand value="false"/>
        <junctions.corner-detail value="0"/>
        <rectangular-lane-cut value="false"/>
        <walkingareas value="false"/>
    </processing>

    <visualisation>
        <registry-viewport value="true"/>
    </visualisation>

</configuration>
-->

<net version="0.27" xmlns:xsi="http://www.w3.org/2001/XMLSchema-instance" xsi:noNamespaceSchemaLocation="http://sumo.dlr.de/xsd/net_file.xsd">

    <location netOffset="510.00,510.00" convBoundary="-200.00,800.00,300.00,1100.00" origBoundary="-510.00,-510.00,510.00,510.00" projParameter="!"/>

    <edge id=":gneJ23_0" function="internal">
        <lane id=":gneJ23_0_0" index="0" speed="13.89" length="5.00" shape="-101.65,1004.75 -101.84,1003.39 -102.43,1002.43 -103.39,1001.84 -104.75,1001.65"/>
    </edge>
    <edge id=":gneJ23_1" function="internal">
        <lane id=":gneJ23_1_0" index="0" speed="13.89" length="9.50" shape="-101.65,1004.75 -101.65,995.25"/>
    </edge>
    <edge id=":gneJ23_2" function="internal">
        <lane id=":gneJ23_2_0" index="0" speed="13.89" length="5.31" shape="-101.65,1004.75 -101.25,1001.95 -100.04,999.95 -99.91,999.88"/>
    </edge>
    <edge id=":gneJ23_12" function="internal">
        <lane id=":gneJ23_12_0" index="0" speed="13.89" length="5.05" shape="-99.91,999.88 -98.02,998.75 -95.20,998.35"/>
    </edge>
    <edge id=":gneJ23_3" function="internal">
        <lane id=":gneJ23_3_0" index="0" speed="13.89" length="5.04" shape="-95.20,1001.65 -96.58,1001.84 -97.56,1002.42 -98.15,1003.39 -98.35,1004.75"/>
    </edge>
    <edge id=":gneJ23_4" function="internal">
        <lane id=":gneJ23_4_0" index="0" speed="13.89" length="9.55" shape="-95.20,1001.65 -104.75,1001.65"/>
    </edge>
    <edge id=":gneJ23_5" function="internal">
        <lane id=":gneJ23_5_0" index="0" speed="13.89" length="5.31" shape="-95.20,1001.65 -98.02,1001.25 -100.04,1000.05 -100.10,999.95"/>
    </edge>
    <edge id=":gneJ23_13" function="internal">
        <lane id=":gneJ23_13_0" index="0" speed="13.89" length="5.05" shape="-100.10,999.95 -101.25,998.05 -101.65,995.25"/>
    </edge>
    <edge id=":gneJ23_6" function="internal">
        <lane id=":gneJ23_6_0" index="0" speed="13.89" length="5.00" shape="-98.28,995.25 -98.10,996.61 -97.53,997.58 -96.56,998.16 -95.20,998.35"/>
    </edge>
    <edge id=":gneJ23_7" function="internal">
        <lane id=":gneJ23_7_0" index="0" speed="13.89" length="9.50" shape="-98.28,995.25 -98.35,1004.75"/>
    </edge>
    <edge id=":gneJ23_8" function="internal">
        <lane id=":gneJ23_8_0" index="0" speed="13.89" length="5.30" shape="-98.28,995.25 -98.72,998.05 -99.94,1000.05 -100.05,1000.11"/>
    </edge>
    <edge id=":gneJ23_14" function="internal">
        <lane id=":gneJ23_14_0" index="0" speed="13.89" length="5.04" shape="-100.05,1000.11 -101.95,1001.25 -104.75,1001.65"/>
    </edge>
    <edge id=":gneJ23_9" function="internal">
        <lane id=":gneJ23_9_0" index="0" speed="13.89" length="5.00" shape="-104.75,998.35 -103.39,998.16 -102.43,997.57 -101.84,996.61 -101.65,995.25"/>
    </edge>
    <edge id=":gneJ23_10" function="internal">
        <lane id=":gneJ23_10_0" index="0" speed="13.89" length="9.55" shape="-104.75,998.35 -95.20,998.35"/>
    </edge>
    <edge id=":gneJ23_11" function="internal">
        <lane id=":gneJ23_11_0" index="0" speed="13.89" length="5.28" shape="-104.75,998.35 -101.95,998.75 -99.95,999.95 -99.89,1000.05"/>
    </edge>
    <edge id=":gneJ23_15" function="internal">
        <lane id=":gneJ23_15_0" index="0" speed="13.89" length="5.04" shape="-99.89,1000.05 -98.75,1001.95 -98.35,1004.75"/>
    </edge>
    <edge id=":gneJ24_0" function="internal">
        <lane id=":gneJ24_0_0" index="0" speed="13.89" length="12.14" shape="5.44,1007.78 2.51,1005.10 -0.17,1003.18 -2.59,1002.03 -4.75,1001.65"/>
    </edge>
    <edge id=":gneJ24_1" function="internal">
        <lane id=":gneJ24_1_0" index="0" speed="13.89" length="14.76" shape="5.44,1007.78 2.84,1005.03 0.57,1002.06 -1.04,998.82 -1.65,995.25"/>
    </edge>
    <edge id=":gneJ24_2" function="internal">
        <lane id=":gneJ24_2_0" index="0" speed="13.89" length="8.37" shape="5.44,1007.78 2.15,1003.65 1.71,1000.71 1.79,1000.64"/>
    </edge>
    <edge id=":gneJ24_12" function="internal">
        <lane id=":gneJ24_12_0" index="0" speed="13.89" length="8.14" shape="1.79,1000.64 4.10,998.94 9.35,998.35"/>
    </edge>
    <edge id=":gneJ24_3" function="internal">
        <lane id=":gneJ24_3_0" index="0" speed="13.89" length="6.64" shape="9.35,1001.65 7.24,1001.89 6.27,1002.60 6.45,1003.78 7.78,1005.44"/>
    </edge>
    <edge id=":gneJ24_4" function="internal">
        <lane id=":gneJ24_4_0" index="0" speed="13.89" length="14.10" shape="9.35,1001.65 -4.75,1001.65"/>
    </edge>
    <edge id=":gneJ24_5" function="internal">
        <lane id=":gneJ24_5_0" index="0" speed="13.89" length="8.61" shape="9.35,1001.65 4.54,1001.25 1.10,1000.05 1.00,999.95"/>
    </edge>
    <edge id=":gneJ24_13" function="internal">
        <lane id=":gneJ24_13_0" index="0" speed="13.89" length="5.61" shape="1.00,999.95 -0.96,998.05 -1.65,995.25"/>
    </edge>
    <edge id=":gneJ24_6" function="internal">
        <lane id=":gneJ24_6_0" index="0" speed="13.89" length="9.02" shape="1.65,995.25 2.13,996.61 3.57,997.57 5.98,998.16 9.35,998.35"/>
    </edge>
    <edge id=":gneJ24_7" function="internal">
        <lane id=":gneJ24_7_0" index="0" speed="13.89" length="12.14" shape="1.65,995.25 2.03,997.41 3.18,999.83 5.10,1002.51 7.78,1005.44"/>
    </edge>
    <edge id=":gneJ24_8" function="internal">
        <lane id=":gneJ24_8_0" index="0" speed="13.89" length="3.77" shape="1.65,995.25 1.25,998.05 0.77,998.86"/>
    </edge>
    <edge id=":gneJ24_14" function="internal">
        <lane id=":gneJ24_14_0" index="0" speed="13.89" length="6.55" shape="0.77,998.86 0.05,1000.05 -1.95,1001.25 -4.75,1001.65"/>
    </edge>
    <edge id=":gneJ24_9" function="internal">
        <lane id=":gneJ24_9_0" index="0" speed="13.89" length="5.00" shape="-4.75,998.35 -3.39,998.16 -2.43,997.58 -1.84,996.61 -1.65,995.25"/>
    </edge>
    <edge id=":gneJ24_10" function="internal">
        <lane id=":gneJ24_10_0" index="0" speed="13.89" length="14.10" shape="-4.75,998.35 9.35,998.35"/>
    </edge>
    <edge id=":gneJ24_11" function="internal">
        <lane id=":gneJ24_11_0" index="0" speed="13.89" length="6.07" shape="-4.75,998.35 -1.18,998.96 1.01,1000.05"/>
    </edge>
    <edge id=":gneJ24_15" function="internal">
        <lane id=":gneJ24_15_0" index="0" speed="13.89" length="8.69" shape="1.01,1000.05 2.06,1000.57 5.03,1002.84 7.78,1005.44"/>
    </edge>
    <edge id=":gneJ25_0" function="internal">
        <lane id=":gneJ25_0_0" index="0" speed="13.89" length="18.69" shape="109.35,1001.65 90.65,1001.65"/>
    </edge>
    <edge id=":gneJ25_1" function="internal">
        <lane id=":gneJ25_1_0" index="0" speed="13.89" length="7.77" shape="109.35,1001.65 105.06,1001.04 101.80,999.95"/>
    </edge>
    <edge id=":gneJ25_2" function="internal">
        <lane id=":gneJ25_2_0" index="0" speed="13.89" length="7.15" shape="109.35,1001.65 104.10,1001.06 102.60,999.95"/>
    </edge>
    <edge id=":gneJ25_12" function="internal">
        <lane id=":gneJ25_12_0" index="0" speed="13.89" length="11.06" shape="101.80,999.95 100.24,999.43 95.69,997.16 92.22,994.56"/>
    </edge>
    <edge id=":gneJ25_13" function="internal">
        <lane id=":gneJ25_13_0" index="0" speed="13.89" length="9.36" shape="102.60,999.95 101.71,999.29 102.15,996.35 105.44,992.22"/>
    </edge>
    <edge id=":gneJ25_3" function="internal">
        <lane id=":gneJ25_3_0" index="0" speed="13.89" length="6.64" shape="107.78,994.56 106.45,996.22 106.27,997.40 107.24,998.11 109.35,998.35"/>
    </edge>
    <edge id=":gneJ25_4" function="internal">
        <lane id=":gneJ25_4_0" index="0" speed="13.89" length="19.02" shape="107.78,994.56 104.05,997.66 99.95,999.88 95.49,1001.21 90.65,1001.65"/>
    </edge>
    <edge id=":gneJ25_5" function="internal">
        <lane id=":gneJ25_5_0" index="0" speed="13.89" length="17.73" shape="107.78,994.56 103.89,997.47 100.00,998.45 96.11,997.47 92.22,994.56"/>
    </edge>
    <edge id=":gneJ25_6" function="internal">
        <lane id=":gneJ25_6_0" index="0" speed="13.89" length="12.41" shape="94.56,992.22 97.28,994.27 100.00,994.95 102.72,994.27 105.44,992.22"/>
    </edge>
    <edge id=":gneJ25_7" function="internal">
        <lane id=":gneJ25_7_0" index="0" speed="13.89" length="16.34" shape="94.56,992.22 97.66,994.67 101.40,996.61 105.42,997.89 109.35,998.35"/>
    </edge>
    <edge id=":gneJ25_8" function="internal">
        <lane id=":gneJ25_8_0" index="0" speed="13.89" length="7.68" shape="94.56,992.22 97.85,996.35 98.21,998.73"/>
    </edge>
    <edge id=":gneJ25_14" function="internal">
        <lane id=":gneJ25_14_0" index="0" speed="13.89" length="8.83" shape="98.21,998.73 98.29,999.29 95.90,1001.06 90.65,1001.65"/>
    </edge>
    <edge id=":gneJ25_9" function="internal">
        <lane id=":gneJ25_9_0" index="0" speed="13.89" length="6.64" shape="90.65,998.35 92.76,998.11 93.73,997.40 93.55,996.22 92.22,994.56"/>
    </edge>
    <edge id=":gneJ25_10" function="internal">
        <lane id=":gneJ25_10_0" index="0" speed="13.89" length="16.43" shape="90.65,998.35 94.83,997.97 98.68,996.82 102.22,994.90 105.44,992.22"/>
    </edge>
    <edge id=":gneJ25_11" function="internal">
        <lane id=":gneJ25_11_0" index="0" speed="13.89" length="18.69" shape="90.65,998.35 109.35,998.35"/>
    </edge>
    <edge id=":gneJ26_0" function="internal">
        <lane id=":gneJ26_0_0" index="0" speed="13.89" length="5.00" shape="198.35,1004.75 198.16,1003.39 197.57,1002.43 196.61,1001.84 195.25,1001.65"/>
    </edge>
    <edge id=":gneJ26_1" function="internal">
        <lane id=":gneJ26_1_0" index="0" speed="13.89" length="20.02" shape="198.35,1004.75 198.35,984.73"/>
    </edge>
    <edge id=":gneJ26_2" function="internal">
        <lane id=":gneJ26_2_0" index="0" speed="13.89" length="20.49" shape="198.35,1004.75 199.13,1000.28 201.01,994.98 203.31,989.78 205.35,985.61"/>
    </edge>
    <edge id=":gneJ26_3" function="internal">
        <lane id=":gneJ26_3_0" index="0" speed="13.89" length="4.75" shape="198.35,1004.75 198.88,1001.95 200.05,1000.46"/>
    </edge>
    <edge id=":gneJ26_20" function="internal">
        <lane id=":gneJ26_20_0" index="0" speed="13.89" length="7.24" shape="200.05,1000.46 200.45,999.95 203.08,998.75 206.76,998.35"/>
    </edge>
    <edge id=":gneJ26_4" function="internal">
        <lane id=":gneJ26_4_0" index="0" speed="13.89" length="6.70" shape="206.76,1001.65 204.52,1001.84 202.93,1002.42 201.97,1003.39 201.65,1004.75"/>
    </edge>
    <edge id=":gneJ26_5" function="internal">
        <lane id=":gneJ26_5_0" index="0" speed="13.89" length="11.51" shape="206.76,1001.65 195.25,1001.65"/>
    </edge>
    <edge id=":gneJ26_6" function="internal">
        <lane id=":gneJ26_6_0" index="0" speed="13.89" length="20.88" shape="206.76,1001.65 203.08,1000.59 200.45,997.42 198.88,992.13 198.35,984.73"/>
    </edge>
    <edge id=":gneJ26_7" function="internal">
        <lane id=":gneJ26_7_0" index="0" speed="13.89" length="19.77" shape="206.76,1001.65 203.14,1000.65 201.69,997.64 202.43,992.63 205.35,985.61"/>
    </edge>
    <edge id=":gneJ26_8" function="internal">
        <lane id=":gneJ26_8_0" index="0" speed="13.89" length="12.78" shape="208.30,987.08 206.09,992.01 205.10,995.53 205.32,997.65 206.76,998.35"/>
    </edge>
    <edge id=":gneJ26_9" function="internal">
        <lane id=":gneJ26_9_0" index="0" speed="13.89" length="19.00" shape="208.30,987.08 206.32,991.03 204.14,995.72 202.38,1000.51 201.65,1004.75"/>
    </edge>
    <edge id=":gneJ26_10" function="internal">
        <lane id=":gneJ26_10_0" index="0" speed="13.89" length="9.04" shape="208.30,987.08 204.76,993.46 203.72,994.86"/>
    </edge>
    <edge id=":gneJ26_11" function="internal">
        <lane id=":gneJ26_11_0" index="0" speed="13.89" length="11.25" shape="208.30,987.08 203.95,994.40 201.67,995.90"/>
    </edge>
    <edge id=":gneJ26_21" function="internal">
        <lane id=":gneJ26_21_0" index="0" speed="13.89" length="11.21" shape="203.72,994.86 201.40,998.01 198.23,1000.74 195.25,1001.65"/>
    </edge>
    <edge id=":gneJ26_22" function="internal">
        <lane id=":gneJ26_22_0" index="0" speed="13.89" length="13.23" shape="201.67,995.90 200.84,996.45 198.97,993.23 198.35,984.73"/>
    </edge>
    <edge id=":gneJ26_12" function="internal">
        <lane id=":gneJ26_12_0" index="0" speed="13.89" length="9.10" shape="201.65,984.73 201.88,987.89 202.58,989.09 203.73,988.33 205.35,985.61"/>
    </edge>
    <edge id=":gneJ26_13" function="internal">
        <lane id=":gneJ26_13_0" index="0" speed="13.89" length="15.73" shape="201.65,984.73 201.97,990.69 202.93,994.95 204.52,997.50 206.76,998.35"/>
    </edge>
    <edge id=":gneJ26_14" function="internal">
        <lane id=":gneJ26_14_0" index="0" speed="13.89" length="20.02" shape="201.65,984.73 201.65,1004.75"/>
    </edge>
    <edge id=":gneJ26_15" function="internal">
        <lane id=":gneJ26_15_0" index="0" speed="13.89" length="13.02" shape="201.65,984.73 201.25,992.13 200.05,997.42 199.95,997.58"/>
    </edge>
    <edge id=":gneJ26_23" function="internal">
        <lane id=":gneJ26_23_0" index="0" speed="13.89" length="6.56" shape="199.95,997.58 198.05,1000.59 195.25,1001.65"/>
    </edge>
    <edge id=":gneJ26_16" function="internal">
        <lane id=":gneJ26_16_0" index="0" speed="13.89" length="14.59" shape="195.25,998.35 196.61,997.50 197.58,994.95 198.16,990.69 198.35,984.73"/>
    </edge>
    <edge id=":gneJ26_17" function="internal">
        <lane id=":gneJ26_17_0" index="0" speed="13.89" length="16.69" shape="195.25,998.35 197.28,997.55 199.64,995.16 202.33,991.18 205.35,985.61"/>
    </edge>
    <edge id=":gneJ26_18" function="internal">
        <lane id=":gneJ26_18_0" index="0" speed="13.89" length="11.51" shape="195.25,998.35 206.76,998.35"/>
    </edge>
    <edge id=":gneJ26_19" function="internal">
        <lane id=":gneJ26_19_0" index="0" speed="13.89" length="10.32" shape="195.25,998.35 198.05,998.75 200.05,999.95 201.25,1001.95 201.65,1004.75"/>
    </edge>
    <edge id=":gneJ27_0" function="internal">
        <lane id=":gneJ27_0_0" index="0" speed="13.89" length="21.34" shape="210.25,1092.08 205.51,1096.27 200.84,1099.26 196.26,1101.05 191.75,1101.65"/>
    </edge>
    <edge id=":gneJ27_1" function="internal">
        <lane id=":gneJ27_1_0" index="0" speed="13.89" length="10.53" shape="210.25,1092.08 205.04,1096.24 201.33,1096.80 201.26,1096.71"/>
    </edge>
    <edge id=":gneJ27_6" function="internal">
        <lane id=":gneJ27_6_0" index="0" speed="13.89" length="10.31" shape="201.26,1096.71 199.09,1093.77 198.35,1087.15"/>
    </edge>
    <edge id=":gneJ27_2" function="internal">
        <lane id=":gneJ27_2_0" index="0" speed="13.89" length="10.98" shape="201.65,1087.15 202.04,1090.64 203.22,1092.23 205.18,1091.94 207.92,1089.75"/>
    </edge>
    <edge id=":gneJ27_3" function="internal">
        <lane id=":gneJ27_3_0" index="0" speed="13.89" length="19.81" shape="201.65,1087.15 201.03,1093.50 199.18,1098.03 196.08,1100.74 191.75,1101.65"/>
    </edge>
    <edge id=":gneJ27_4" function="internal">
        <lane id=":gneJ27_4_0" index="0" speed="13.89" length="14.54" shape="191.75,1098.35 194.64,1097.65 196.70,1095.55 197.94,1092.05 198.35,1087.15"/>
    </edge>
    <edge id=":gneJ27_5" function="internal">
        <lane id=":gneJ27_5_0" index="0" speed="13.89" length="18.62" shape="191.75,1098.35 195.89,1097.50 200.38,1095.38 204.60,1092.59 207.92,1089.75"/>
    </edge>
    <edge id=":gneJ29_0" function="internal">
        <lane id=":gneJ29_0_0" index="0" speed="13.89" length="21.34" shape="-91.75,1101.65 -96.26,1101.05 -100.84,1099.26 -105.51,1096.27 -110.25,1092.08"/>
    </edge>
    <edge id=":gneJ29_1" function="internal">
        <lane id=":gneJ29_1_0" index="0" speed="13.89" length="8.96" shape="-91.75,1101.65 -96.08,1100.74 -99.17,1098.03 -99.33,1097.64"/>
    </edge>
    <edge id=":gneJ29_6" function="internal">
        <lane id=":gneJ29_6_0" index="0" speed="13.89" length="10.85" shape="-99.33,1097.64 -101.03,1093.50 -101.65,1087.15"/>
    </edge>
    <edge id=":gneJ29_2" function="internal">
        <lane id=":gneJ29_2_0" index="0" speed="13.89" length="14.54" shape="-98.35,1087.15 -97.94,1092.05 -96.70,1095.55 -94.64,1097.65 -91.75,1098.35"/>
    </edge>
    <edge id=":gneJ29_3" function="internal">
        <lane id=":gneJ29_3_0" index="0" speed="13.89" length="20.84" shape="-98.35,1087.15 -99.09,1093.77 -101.33,1096.80 -105.04,1096.24 -110.25,1092.08"/>
    </edge>
    <edge id=":gneJ29_4" function="internal">
        <lane id=":gneJ29_4_0" index="0" speed="13.89" length="10.98" shape="-107.92,1089.75 -105.18,1091.94 -103.22,1092.23 -102.04,1090.64 -101.65,1087.15"/>
    </edge>
    <edge id=":gneJ29_5" function="internal">
        <lane id=":gneJ29_5_0" index="0" speed="13.89" length="18.62" shape="-107.92,1089.75 -104.60,1092.59 -100.38,1095.38 -95.89,1097.50 -91.75,1098.35"/>
    </edge>
    <edge id=":gneJ30_0" function="internal">
        <lane id=":gneJ30_0_0" index="0" speed="13.89" length="10.48" shape="-101.65,905.71 -101.65,895.23"/>
    </edge>
    <edge id=":gneJ30_1" function="internal">
        <lane id=":gneJ30_1_0" index="0" speed="13.89" length="6.43" shape="-101.65,905.71 -101.21,902.49 -99.89,900.19 -99.44,899.91"/>
    </edge>
    <edge id=":gneJ30_6" function="internal">
        <lane id=":gneJ30_6_0" index="0" speed="13.89" length="5.18" shape="-99.44,899.91 -97.69,898.81 -94.61,898.35"/>
    </edge>
    <edge id=":gneJ30_2" function="internal">
        <lane id=":gneJ30_2_0" index="0" speed="13.89" length="5.21" shape="-94.61,901.65 -96.07,901.86 -97.02,902.49 -97.47,903.53 -97.42,904.99"/>
    </edge>
    <edge id=":gneJ30_3" function="internal">
        <lane id=":gneJ30_3_0" index="0" speed="13.89" length="10.86" shape="-94.61,901.65 -97.69,901.25 -99.89,900.04 -101.21,898.04 -101.65,895.23"/>
    </edge>
    <edge id=":gneJ30_4" function="internal">
        <lane id=":gneJ30_4_0" index="0" speed="13.89" length="4.95" shape="-97.66,895.25 -97.46,896.61 -96.89,897.58 -95.94,898.16 -94.61,898.35"/>
    </edge>
    <edge id=":gneJ30_5" function="internal">
        <lane id=":gneJ30_5_0" index="0" speed="13.89" length="9.77" shape="-97.66,895.25 -97.73,898.16 -97.85,900.15 -97.82,902.13 -97.42,904.99"/>
    </edge>
    <edge id=":gneJ31_0" function="internal">
        <lane id=":gneJ31_0_0" index="0" speed="13.89" length="12.95" shape="-101.65,818.76 -101.98,814.27 -102.97,812.56 -104.61,813.65 -106.92,817.52"/>
    </edge>
    <edge id=":gneJ31_1" function="internal">
        <lane id=":gneJ31_1_0" index="0" speed="13.89" length="25.04" shape="-101.65,818.76 -101.03,809.83 -99.17,803.45 -96.07,799.63 -91.73,798.35"/>
    </edge>
    <edge id=":gneJ31_2" function="internal">
        <lane id=":gneJ31_2_0" index="0" speed="13.89" length="19.83" shape="-91.73,801.65 -94.61,802.72 -96.65,805.92 -97.85,811.26 -98.21,818.73"/>
    </edge>
    <edge id=":gneJ31_3" function="internal">
        <lane id=":gneJ31_3_0" index="0" speed="13.89" length="22.84" shape="-91.73,801.65 -95.40,802.64 -99.15,805.62 -102.99,810.58 -106.92,817.52"/>
    </edge>
    <edge id=":gneJ31_4" function="internal">
        <lane id=":gneJ31_4_0" index="0" speed="13.89" length="26.46" shape="-109.87,816.05 -105.42,808.31 -100.91,802.77 -96.35,799.46 -91.73,798.35"/>
    </edge>
    <edge id=":gneJ31_5" function="internal">
        <lane id=":gneJ31_5_0" index="0" speed="13.89" length="14.43" shape="-109.87,816.05 -104.84,807.61 -101.22,805.25 -101.08,805.49"/>
    </edge>
    <edge id=":gneJ31_6" function="internal">
        <lane id=":gneJ31_6_0" index="0" speed="13.89" length="13.84" shape="-101.08,805.49 -99.01,808.95 -98.21,818.73"/>
    </edge>
    <edge id=":gneJ32_0" function="internal">
        <lane id=":gneJ32_0_0" index="0" speed="13.89" length="12.95" shape="298.35,818.77 298.02,814.27 297.03,812.57 295.39,813.65 293.08,817.52"/>
    </edge>
    <edge id=":gneJ32_1" function="internal">
        <lane id=":gneJ32_1_0" index="0" speed="13.89" length="21.20" shape="298.35,818.77 297.81,811.28 296.20,805.93 293.51,802.72 289.74,801.65"/>
    </edge>
    <edge id=":gneJ32_2" function="internal">
        <lane id=":gneJ32_2_0" index="0" speed="13.89" length="26.43" shape="289.74,798.35 294.95,799.63 298.67,803.45 300.91,809.83 301.65,818.77"/>
    </edge>
    <edge id=":gneJ32_3" function="internal">
        <lane id=":gneJ32_3_0" index="0" speed="13.89" length="10.61" shape="289.74,798.35 294.80,799.55 297.04,803.14 296.93,804.31"/>
    </edge>
    <edge id=":gneJ32_6" function="internal">
        <lane id=":gneJ32_6_0" index="0" speed="13.89" length="13.89" shape="296.93,804.31 296.47,809.14 293.08,817.52"/>
    </edge>
    <edge id=":gneJ32_4" function="internal">
        <lane id=":gneJ32_4_0" index="0" speed="13.89" length="17.31" shape="290.13,816.05 292.81,809.75 293.63,805.25 292.61,802.55 289.74,801.65"/>
    </edge>
    <edge id=":gneJ32_5" function="internal">
        <lane id=":gneJ32_5_0" index="0" speed="13.89" length="28.33" shape="290.13,816.05 295.17,807.58 298.77,805.21 300.93,808.94 301.65,818.77"/>
    </edge>
    <edge id=":gneJ33_0" function="internal">
        <lane id=":gneJ33_0_0" index="0" speed="13.89" length="21.10" shape="301.65,991.75 300.65,996.25 298.19,1001.55 295.07,1006.57 292.08,1010.25"/>
    </edge>
    <edge id=":gneJ33_1" function="internal">
        <lane id=":gneJ33_1_0" index="0" speed="13.89" length="8.37" shape="301.65,991.75 300.74,996.08 298.14,999.04"/>
    </edge>
    <edge id=":gneJ33_6" function="internal">
        <lane id=":gneJ33_6_0" index="0" speed="13.89" length="11.44" shape="298.14,999.04 298.03,999.18 293.50,1001.03 287.15,1001.65"/>
    </edge>
    <edge id=":gneJ33_2" function="internal">
        <lane id=":gneJ33_2_0" index="0" speed="13.89" length="14.54" shape="287.15,998.35 292.05,997.94 295.55,996.70 297.65,994.64 298.35,991.75"/>
    </edge>
    <edge id=":gneJ33_3" function="internal">
        <lane id=":gneJ33_3_0" index="0" speed="13.89" length="20.84" shape="287.15,998.35 293.77,999.09 296.80,1001.33 296.24,1005.04 292.08,1010.25"/>
    </edge>
    <edge id=":gneJ33_4" function="internal">
        <lane id=":gneJ33_4_0" index="0" speed="13.89" length="10.98" shape="289.75,1007.92 291.94,1005.18 292.23,1003.22 290.64,1002.04 287.15,1001.65"/>
    </edge>
    <edge id=":gneJ33_5" function="internal">
        <lane id=":gneJ33_5_0" index="0" speed="13.89" length="18.75" shape="289.75,1007.92 293.51,1003.68 296.20,999.58 297.81,995.60 298.35,991.75"/>
    </edge>
    <edge id=":gneJ34_0" function="internal">
        <lane id=":gneJ34_0_0" index="0" speed="13.89" length="10.98" shape="198.35,912.85 197.96,909.36 196.78,907.77 194.82,908.06 192.08,910.25"/>
    </edge>
    <edge id=":gneJ34_1" function="internal">
        <lane id=":gneJ34_1_0" index="0" speed="13.89" length="18.06" shape="198.35,912.85 197.65,907.95 195.55,904.45 192.05,902.35 187.15,901.65"/>
    </edge>
    <edge id=":gneJ34_2" function="internal">
        <lane id=":gneJ34_2_0" index="0" speed="13.89" length="23.38" shape="187.15,898.35 193.50,899.26 198.03,901.97 200.74,906.50 201.65,912.85"/>
    </edge>
    <edge id=":gneJ34_3" function="internal">
        <lane id=":gneJ34_3_0" index="0" speed="13.89" length="12.28" shape="187.15,898.35 193.77,899.09 196.80,901.33 196.52,903.17"/>
    </edge>
    <edge id=":gneJ34_6" function="internal">
        <lane id=":gneJ34_6_0" index="0" speed="13.89" length="8.56" shape="196.52,903.17 196.24,905.04 192.08,910.25"/>
    </edge>
    <edge id=":gneJ34_4" function="internal">
        <lane id=":gneJ34_4_0" index="0" speed="13.89" length="10.98" shape="189.75,907.92 191.94,905.18 192.23,903.22 190.64,902.04 187.15,901.65"/>
    </edge>
    <edge id=":gneJ34_5" function="internal">
        <lane id=":gneJ34_5_0" index="0" speed="13.89" length="20.84" shape="189.75,907.92 194.96,903.76 198.67,903.20 200.91,906.23 201.65,912.85"/>
    </edge>
    <edge id=":gneJ35_0" function="internal">
        <lane id=":gneJ35_0_0" index="0" speed="13.89" length="9.02" shape="-1.65,909.35 -1.84,905.98 -2.43,903.57 -3.39,902.13 -4.75,901.65"/>
    </edge>
    <edge id=":gneJ35_1" function="internal">
        <lane id=":gneJ35_1_0" index="0" speed="13.89" length="17.73" shape="-1.65,909.35 -0.96,904.54 1.10,901.10 4.54,899.04 9.35,898.35"/>
    </edge>
    <edge id=":gneJ35_2" function="internal">
        <lane id=":gneJ35_2_0" index="0" speed="13.89" length="16.51" shape="-1.65,909.35 -1.06,904.10 0.71,901.71 3.65,902.15 7.78,905.44"/>
    </edge>
    <edge id=":gneJ35_3" function="internal">
        <lane id=":gneJ35_3_0" index="0" speed="13.89" length="6.64" shape="5.44,907.78 3.78,906.45 2.60,906.27 1.89,907.24 1.65,909.35"/>
    </edge>
    <edge id=":gneJ35_4" function="internal">
        <lane id=":gneJ35_4_0" index="0" speed="13.89" length="12.31" shape="5.44,907.78 3.06,905.33 0.90,903.39 -1.55,902.11 -4.75,901.65"/>
    </edge>
    <edge id=":gneJ35_5" function="internal">
        <lane id=":gneJ35_5_0" index="0" speed="13.89" length="6.24" shape="5.44,907.78 2.15,903.65 2.01,902.70"/>
    </edge>
    <edge id=":gneJ35_12" function="internal">
        <lane id=":gneJ35_12_0" index="0" speed="13.89" length="10.27" shape="2.01,902.70 1.71,900.71 4.10,898.94 9.35,898.35"/>
    </edge>
    <edge id=":gneJ35_6" function="internal">
        <lane id=":gneJ35_6_0" index="0" speed="13.89" length="6.64" shape="9.35,901.65 7.24,901.89 6.27,902.60 6.45,903.78 7.78,905.44"/>
    </edge>
    <edge id=":gneJ35_7" function="internal">
        <lane id=":gneJ35_7_0" index="0" speed="13.89" length="12.41" shape="9.35,901.65 5.98,902.13 3.57,903.57 2.13,905.98 1.65,909.35"/>
    </edge>
    <edge id=":gneJ35_8" function="internal">
        <lane id=":gneJ35_8_0" index="0" speed="13.89" length="14.10" shape="9.35,901.65 -4.75,901.65"/>
    </edge>
    <edge id=":gneJ35_9" function="internal">
        <lane id=":gneJ35_9_0" index="0" speed="13.89" length="14.10" shape="-4.75,898.35 9.35,898.35"/>
    </edge>
    <edge id=":gneJ35_10" function="internal">
        <lane id=":gneJ35_10_0" index="0" speed="13.89" length="6.07" shape="-4.75,898.35 -1.18,898.96 1.01,900.05"/>
    </edge>
    <edge id=":gneJ35_11" function="internal">
        <lane id=":gneJ35_11_0" index="0" speed="13.89" length="4.29" shape="-4.75,898.35 -1.95,899.04 -0.97,900.05"/>
    </edge>
    <edge id=":gneJ35_13" function="internal">
        <lane id=":gneJ35_13_0" index="0" speed="13.89" length="8.69" shape="1.01,900.05 2.06,900.57 5.03,902.84 7.78,905.44"/>
    </edge>
    <edge id=":gneJ35_14" function="internal">
        <lane id=":gneJ35_14_0" index="0" speed="13.89" length="9.93" shape="-0.97,900.05 0.05,901.10 1.25,904.54 1.65,909.35"/>
    </edge>
    <edge id=":gneJ36_0" function="internal">
        <lane id=":gneJ36_0_0" index="0" speed="13.89" length="12.19" shape="102.85,1101.65 90.65,1101.65"/>
    </edge>
    <edge id=":gneJ36_1" function="internal">
        <lane id=":gneJ36_1_0" index="0" speed="13.89" length="4.66" shape="102.85,1101.65 100.86,1101.21 98.56,1099.95"/>
    </edge>
    <edge id=":gneJ36_6" function="internal">
        <lane id=":gneJ36_6_0" index="0" speed="13.89" length="8.33" shape="98.56,1099.95 98.43,1099.88 95.55,1097.66 92.22,1094.56"/>
    </edge>
    <edge id=":gneJ36_2" function="internal">
        <lane id=":gneJ36_2_0" index="0" speed="13.89" length="10.81" shape="94.56,1092.22 96.64,1094.67 98.15,1096.61 99.94,1097.89 102.85,1098.35"/>
    </edge>
    <edge id=":gneJ36_3" function="internal">
        <lane id=":gneJ36_3_0" index="0" speed="13.89" length="16.51" shape="94.56,1092.22 97.85,1096.35 98.29,1099.29 95.90,1101.06 90.65,1101.65"/>
    </edge>
    <edge id=":gneJ36_4" function="internal">
        <lane id=":gneJ36_4_0" index="0" speed="13.89" length="6.64" shape="90.65,1098.35 92.76,1098.11 93.73,1097.40 93.55,1096.22 92.22,1094.56"/>
    </edge>
    <edge id=":gneJ36_5" function="internal">
        <lane id=":gneJ36_5_0" index="0" speed="13.89" length="12.19" shape="90.65,1098.35 102.85,1098.35"/>
    </edge>
    <edge id=":gneJ39_0" function="internal">
        <lane id=":gneJ39_0_0" index="0" speed="13.89" length="22.28" shape="-192.08,1010.25 -196.11,1005.27 -198.25,1000.25 -198.51,995.19 -196.89,990.09"/>
    </edge>
    <edge id=":gneJ39_1" function="internal">
        <lane id=":gneJ39_1_0" index="0" speed="13.89" length="11.22" shape="-192.08,1010.25 -196.24,1005.04 -196.80,1001.33 -196.16,1000.85"/>
    </edge>
    <edge id=":gneJ39_6" function="internal">
        <lane id=":gneJ39_6_0" index="0" speed="13.89" length="9.63" shape="-196.16,1000.85 -193.77,999.09 -187.15,998.35"/>
    </edge>
    <edge id=":gneJ39_2" function="internal">
        <lane id=":gneJ39_2_0" index="0" speed="13.89" length="10.98" shape="-187.15,1001.65 -190.64,1002.04 -192.23,1003.22 -191.94,1005.18 -189.75,1007.92"/>
    </edge>
    <edge id=":gneJ39_3" function="internal">
        <lane id=":gneJ39_3_0" index="0" speed="13.89" length="19.88" shape="-187.15,1001.65 -193.58,1000.93 -197.35,998.76 -198.45,995.15 -196.89,990.09"/>
    </edge>